147
-453.72156168 
  C     -3.46049666      1.27358026     -2.67054263
  C     -1.25795594      0.69274333     -4.03639050
  C     -1.24980323     -1.30663496      4.20247002
  C      3.30156217      3.57138923      2.34761656
  C     -0.84046592      3.94826019     -5.15470815
  C     -2.78342512     -3.61495004      0.86179041
  C     -4.48702045      0.05551928      1.49182622
  C     -2.46233352     -5.07005846     -1.23629963
  C     -6.00948586     -2.38793462     -1.57782256
  C      4.67523726     -0.05028789     -1.59505712
  C     -4.45627029     -1.81145519     -3.44348623
  C      4.24070486      1.11802777     -5.06580895
  C      5.55697759     -0.21092739      2.42116990
  C     -5.97660682      2.23166338     -1.54872455
  C      6.55089890     -1.13133543      0.20746363
  C      1.82278665     -5.76247067     -2.82195722
  C     -5.01405021     -1.32100858      3.72400810
  C      3.17697689      4.73428180     -0.14196672
  C     -1.07330175      5.26860444      0.99934956
  C      1.35916370     -4.63210783     -4.95873322
  C     -2.68117285     -5.21112227      3.08926657
  C     -3.11157343     -0.84382335      5.78737245
  C      1.93685879      3.21929696     -1.86513224
  C      5.27781528     -4.38657278     -2.37491992
  C      0.22039922     -5.10266989     -0.99781144
  C      1.62513221     -2.20567986     -4.72065339
  C     -2.71201751      4.36051236      5.12255737
  C     -2.37805942     -1.44551062     -4.85712493
  C      2.21101264      2.16527121     -5.88604995
  C     -0.58364528     -4.97811590     -3.31134072
  C      3.61510365     -3.91399396      1.38698719
  C     -2.42544128      3.28304696      0.48147638
  C     -1.23432723     -2.38297060      6.36581317
  C      1.30069820      3.63244777      3.92460394
  C      2.63849036     -0.47513874     -6.29364964
  C     -0.60095485      2.84227229      5.25826709
  C      1.59862016      4.59727145     -5.04661277
  C     -3.53120448     -2.82168321     -1.32997948
  C      6.60144567      2.97407071     -1.17226089
  C     -0.25200201      3.11495054     -0.65838040
  C      1.36785043      1.24684150      5.18042707
  C      4.68174580     -3.88649757      3.89707867
  C     -5.04885824      0.58510967      5.52149074
  C      1.88792261     -0.59581111      1.49117100
  C      0.18390405      0.98507338      0.62055990
  C     -2.32227671     -0.91583750     -2.41817079
  C      1.88312501      2.77166635      0.52154729
  C     -4.79624130     -4.37244118     -2.66124054
  C     -1.75220816      1.04915291     -0.93702302
  C      5.93339957      1.22674553      0.40605332
  C     -3.15676339     -2.97870282      4.48799841
  C      0.79868688      2.57882490     -3.91288563
  C      5.35068193      2.23072153      2.84145709
  C     -4.59137389     -3.69947999      2.52926432
  C     -4.05078648      1.64608646     -0.24520213
  C     -1.46039177      2.81031906     -2.77403667
  C      2.38448485     -4.52356306      3.56715486
  C     -5.81406522      0.23522152     -2.95122271
  C      2.52583460      5.41246244     -2.70564083
  C      4.10250285     -1.25036284      0.51506621
  C      5.11025855     -1.51607821      4.53744933
  C      3.31050289     -0.16617233      5.91004044
  C     -6.19624292      3.62434922      2.69303005
  C     -0.37381379     -3.16760660      0.50054340
  C     -0.56779994      0.94106447      3.50839620
  C     -6.72551077     -0.83523525      1.87683119
  C     -4.17266614      2.43150933      2.07969840
  C      5.77065138     -2.61161401      2.13234286
  C      1.41456606     -4.96109341      1.11949160
  C      3.43813561      0.25627675      3.55520748
  C     -0.53142792     -1.03571329      1.85701908
  C     -6.36236410      1.72590575      0.96543629
  C      1.21548820     -3.36867065     -2.46795796
  C     -2.97195409     -1.63688960      2.40299171
  C      1.62876027      1.58957783      2.67892407
  C     -0.16354297     -0.87648657     -5.97735596
  C     -3.73115245      3.60109196     -1.71294802
  C     -3.26462968      0.49698456      3.71101928
  C      1.28306406      4.90367952      1.73513641
  C     -1.41732993     -4.57457284      5.12988042
  C     -5.30822164      5.77954740      1.80417281
  C      3.87241461     -2.37314104     -1.80904385
  C     -0.65029025     -3.21977730     -5.06728615
  C     -3.16913073      4.71793248      2.45181962
  C      3.29357969     -3.84301366     -3.67806318
  C      5.40781072      0.88660211      4.89858499
  C      0.02045106     -1.04132954     -0.77014951
  C      1.19237048     -2.83876875      2.32881327
  C      1.30138967      0.27053768     -4.41707922
  C     -2.26703567      0.45828881     -6.42040321
  C      1.92836738     -1.05234141     -2.34110163
  C      6.01040899     -0.25945625     -3.84248122
  C     -5.19422342      3.82971985      0.31505916
  C     -0.23524525     -1.44915771     -3.39424057
  C     -4.86997616      5.20883324      4.15369155
  C     -2.64479860     -3.56990809     -3.57628893
  C     -2.79350254      4.62740430     -3.73709871
  C      5.11343513     -0.98426446     -6.06677198
  C      5.34949609      1.99563946     -3.01456014
  C      1.01816284     -1.20638130      6.26694276
  C     -1.68328407      5.00186439     -1.43431110
  C      0.84064574      5.30801592     -0.70416946
  C      2.35360109      0.51306742     -0.59386149
  C      6.30946688     -1.97941159     -2.08190200
  C      7.05773393      0.52147330     -1.70831161
  C     -4.93259890     -2.13217180      0.68403839
  C      3.03612922     -4.58769101     -1.01406035
  C      4.69567452      4.32847096     -2.06309393
  C      0.50407715     -3.14695834      4.69066328
  C      0.06982451     -5.31438348      3.25447004
  C     -4.57711579      2.80961275      4.46395187
  C     -1.12594103     -3.04257327     -1.75210232
  C     -4.94906819      2.76126591     -3.80621836
  C     -3.55467851     -5.96699413      0.91897454
  C     -0.85615622      0.33876963      5.96404964
  C      3.44035954     -2.00236077      2.79507227
  C      5.40866764     -3.36743401     -0.17162479
  C     -5.91687302      1.06104643      3.30006232
  C     -0.32021154      3.00299640      1.91396298
  C      3.57008207     -2.89665526     -5.95844879
  C      3.45641696      2.45209233      4.57639403
  C     -1.12590558     -5.46821437      1.07903898
  C     -2.30432651     -1.20776399      0.10548358
  C      4.04123406      2.30497491     -0.90125653
  C      3.69995534      1.22306262      1.32503557
  C     -5.03976949     -4.41032861     -0.17776658
  C     -6.60708192     -0.16777632     -0.52762002
  C      0.42063641      1.02913712     -2.08964142
  C      2.95126681      1.18671628     -2.92587523
  C     -2.21403089      2.70578124      3.42754115
  C     -2.75534939      2.42190292     -4.94515270
  C      3.68717740     -1.06783040     -3.99221468
  C      3.39782236      3.34574066     -3.96012593
  C      5.21244506      3.63840501      0.76835934
  C      1.22987195     -0.85328664      3.86115729
  C      0.13192772      4.77066211     -3.01907445
  C     -0.83785412      4.83996582      3.49571877
  C      2.85661024     -2.50023574      5.10049333
  C     -2.80786756      1.79489498      5.79610233
  C     -0.19861250      1.69994385     -6.03512068
  C      5.46245822     -2.74252575     -4.27339943
  C     -4.13330130      0.33336160     -4.78916390
  C     -2.14222219      0.95025108      1.52449991
  C     -1.21682578     -3.31993984      2.82225115
  C     -4.33729178     -0.52823209     -1.13989001
  C      1.97488727     -2.53728570     -0.11462499
  C     -3.47650408      5.56701808      0.11154605
