147
Energy =   -460.47416276 au
  Cu      0.95705836     -5.71680353     -1.34552179
  Cu     -5.14315499     -3.47843943     -1.62378146
  Cu     -1.05261261     -3.40882966     -3.26794823
  Cu     -5.61311652      1.44244560     -1.34931523
  Cu     -3.37591949     -4.34221281     -3.30708444
  Cu      1.14280876     -2.95847211      2.71797649
  Cu     -4.91142891     -4.03277060      0.89598953
  Cu     -5.20552983      0.48542428     -3.72219404
  Cu     -1.98016485     -1.05347204     -3.52351952
  Cu     -4.07493912      0.74245553      0.53803286
  Cu      2.59946424      3.15069182     -0.87285093
  Cu     -2.35570089      3.17549180      4.44695896
  Cu     -3.18441189     -0.64565938      6.52588199
  Cu     -2.11337465     -0.42849107      4.33100055
  Cu      5.87304520     -2.36078913     -1.05938475
  Cu      1.14436059      6.31476723     -0.04690988
  Cu     -1.14437928     -6.31475995      0.04692275
  Cu     -2.91259557     -5.45053381      1.73111950
  Cu      0.00000259     -0.00000098     -0.00001283
  Cu     -0.83736681     -4.01197004     -0.80554090
  Cu      1.61576298     -1.29955337     -6.07356924
  Cu      1.37592733      5.76079928      2.47146812
  Cu     -6.05822074     -1.06397442     -1.83137132
  Cu      2.35566393     -3.17550975     -4.44692174
  Cu      2.84963003     -1.33277767      3.67571316
  Cu     -1.82516541      1.57514225     -5.94773092
  Cu      0.71318006     -5.08728697     -3.84691237
  Cu     -1.04870638     -0.21262729      2.14911530
  Cu      0.52230547      1.69153115      1.62160624
  Cu      0.83734475      4.01198073      0.80554425
  Cu     -0.90037407     -6.77658613      2.53215574
  Cu     -2.97027430      4.64573876     -2.23673839
  Cu      0.37360176     -0.89373262      4.06296452
  Cu      3.50524039     -3.17474587     -1.02068844
  Cu      0.70066434      1.11491273     -6.28123665
  Cu      0.59755887      4.49738664     -1.68048242
  Cu     -2.24542500     -0.84932851      0.01964161
  Cu     -2.83036721     -2.59833854     -1.63822201
  Cu      2.11340191      0.42851494     -4.33099078
  Cu     -3.73313834     -3.42438149      3.12180096
  Cu     -0.53831200      1.51237915      3.85603149
  Cu     -1.41403737      0.66135549     -1.82394192
  Cu     -2.52275082     -2.79199641     -5.19892206
  Cu     -5.28169161      4.78362123      1.53794977
  Cu      4.64494980     -3.01414419     -3.24457610
  Cu     -3.50524979      3.17473298      1.02068775
  Cu      4.07496661     -0.74249204     -0.53803256
  Cu      1.58600945      5.13644172      4.92404163
  Cu     -3.18588685     -4.96194813     -0.79858480
  Cu     -1.61574141      1.29956260      6.07360227
  Cu      4.52510235      1.71155442     -0.03959062
  Cu     -0.29652436     -2.23167730      0.83388449
  Cu     -1.68453801     -4.79713552      3.91634046
  Cu      2.97030582     -4.64571207      2.23675206
  Cu     -0.52231508     -1.69151933     -1.62160461
  Cu     -0.95710302      5.71681757      1.34557071
  Cu     -3.22475502      2.28731948     -1.34726579
  Cu      2.45601246      2.72637449     -5.26526601
  Cu      3.22475756     -2.28730545      1.34727784
  Cu      0.92287793      0.85002707      5.81671402
  Cu      3.43729841      0.37887339      5.40641901
  Cu     -4.52507992     -1.71161362      0.03958514
  Cu     -0.00447420      3.25249989      5.53257868
  Cu     -3.43730526     -0.37884817     -5.40643049
  Cu      6.39208392      0.12600670     -0.56005710
  Cu     -2.59702507      3.64705823     -4.59809115
  Cu      2.59705174     -3.64705025      4.59810299
  Cu      2.85113756     -1.39356392     -2.71567551
  Cu      1.17652683     -6.19554585      1.19125845
  Cu     -4.29378799      2.00822197     -5.53848883
  Cu      3.93661771     -1.18033052     -4.92927635
  Cu      0.90039138      6.77659006     -2.53213660
  Cu      4.45595372      1.30782799     -4.42971584
  Cu      3.36867591      1.08596898     -2.21783436
  Cu      6.05822408      1.06397098      1.83139919
  Cu      1.73936490     -1.57536081     -0.50648404
  Cu      1.47549361     -3.89316570      0.33482725
  Cu     -3.93661392      1.18032049      4.92928929
  Cu      3.18442966      0.64566218     -6.52587976
  Cu      5.68334374      1.96079690     -2.24568589
  Cu      0.29652100      2.23168428     -0.83387749
  Cu      5.28164356     -4.78367367     -1.53796315
  Cu     -5.68329182     -1.96087614      2.24568356
  Cu     -1.47549776      3.89318500     -0.33480416
  Cu      0.07156632     -3.22891182      4.99774659
  Cu     -6.39203825     -0.12606489      0.56007839
  Cu      5.01989982     -3.91095191      0.83249253
  Cu     -0.70064540     -1.11490730      6.28126683
  Cu      4.34774394      1.95411783      3.56185097
  Cu     -2.85114951      1.39355818      2.71567734
  Cu     -0.71324967      5.08729326      3.84694804
  Cu      3.37585020      4.34225627      3.30699095
  Cu     -4.34776061     -1.95406856     -3.56188572
  Cu     -1.73936374      1.57536760      0.50648474
  Cu     -1.58603260     -5.13638382     -4.92408721
  Cu     -3.26456628      5.52242164      0.18347468
  Cu      3.18586731      4.96195146      0.79851981
  Cu     -2.59945519     -3.15072952      0.87283753
  Cu      3.73317466      3.42432988     -3.12182953
  Cu     -3.74226439     -0.19221956     -1.84512129
  Cu     -5.01988734      3.91097469     -0.83249113
  Cu     -1.37598060     -5.76075312     -2.47148618
  Cu      3.26454968     -5.52241218     -0.18344931
  Cu      3.03280321     -4.96817400     -2.70321827
  Cu      1.37566144      2.49962712     -3.05049164
  Cu      3.74226294      0.19221608      1.84513053
  Cu      4.91145127      4.03268632     -0.89605097
  Cu     -1.37564060     -2.49960261      3.05049948
  Cu      1.41403144     -0.66134998      1.82394987
  Cu      1.24457129     -3.34081298     -2.17622257
  Cu      1.05255826      3.40886437      3.26792532
  Cu      1.68454891      4.79714921     -3.91635192
  Cu     -2.45596341     -2.72636772      5.26527231
  Cu     -2.84963940      1.33279554     -3.67569430
  Cu      5.61313213     -1.44243912      1.34932145
  Cu      5.20553246     -0.48538340      3.72221354
  Cu      1.04869944      0.21264693     -2.14910892
  Cu     -6.81832531     -2.57903336      0.05966289
  Cu      4.29379256     -2.00819271      5.53850719
  Cu      1.98015764      1.05349737      3.52350569
  Cu     -0.92286524     -0.85000939     -5.81671190
  Cu      2.91260348      5.45048577     -1.73114213
  Cu      0.00448776     -3.25247993     -5.53257488
  Cu      2.83034226      2.59833801      1.63818590
  Cu     -1.17650576      6.19555543     -1.19122476
  Cu      1.82516336     -1.57514206      5.94775179
  Cu      2.52273558      2.79204275      5.19886165
  Cu      0.84268338     -5.25759470      3.58265746
  Cu     -4.45590123     -1.30786243      4.42971280
  Cu     -4.68622094      2.97357350     -3.22261844
  Cu     -0.37360172      0.89376123     -4.06294793
  Cu     -3.36864843     -1.08599905      2.21783299
  Cu     -5.87302760      2.36073426      1.05937134
  Cu     -0.84265607      5.25761101     -3.58266524
  Cu      6.81835495      2.57895806     -0.05965510
  Cu      5.14312927      3.47843924      1.62371234
  Cu      2.24543041      0.84930339     -0.01965065
  Cu     -0.07153722      3.22890796     -4.99774466
  Cu     -5.23324943      0.53375163      2.78143319
  Cu     -1.14279935      2.95849379     -2.71796414
  Cu     -4.64499064      3.01410486      3.24457271
  Cu     -3.03287642      4.96813350      2.70324802
  Cu     -1.24460587      3.34081939      2.17623853
  Cu      4.68623768     -2.97351843      3.22263597
  Cu      5.23326505     -0.53379720     -2.78142373
  Cu      0.53829899     -1.51235318     -3.85602392
  Cu     -0.59755204     -4.49738232      1.68048996
